
/*------------------------------*- C++ -*----------------------------------\
  =========                 |
  \      /  F ield         | OpenFOAM: The Open Source CFD Toolbox
   \    /   O peration     | Website:  https://openfoam.org
    \  /    A nd           | Version:  8
     \/     M anipulation  |
\*-------------------------------------------------------------------------*/
FoamFile
{
    version     2.0;
    format      ascii;
    class       dictionary;
    location    "system";
    object      fvSchemes;
}
// * * * * * * * * * * * * * * * * * * * * * * * * * * * * * * * * * * * * //

ddtSchemes
{
    default         steadyState;
}

gradSchemes
{
    default         cellLimited Gauss linear 0.5;
}

divSchemes
{
    default         none;
    div(phi,T)      Gauss linearUpwind default;
    div(phi,Tr)      Gauss linearUpwind default;
}

laplacianSchemes
{
    default         none;
    laplacian(DT,T) Gauss linear corrected;
    laplacian(Dturbulent,T) Gauss linear corrected;
    laplacian(DT,Tr) Gauss linear corrected;
    laplacian(Dturbulent,Tr) Gauss linear corrected;
}

interpolationSchemes
{
    default         linear;
}

snGradSchemes
{
    default         limited 1;
}

// *********************************************************************** //
