
/*------------------------------*- C++ -*----------------------------------*| =======                 |                                                 |
| \      /  F ield       | OpenFOAM: The Open Source CFD Toolbox           |
|  \    /   O peration   | Version:  2.3.1                                 |
|   \  /    A nd         | Web:      www.OpenFOAM.org                      |
|    \/     M anipulation|                                                 |
\*-------------------------------------------------------------------------*/
FoamFile
{
    version     2.0;
    format      ascii;
    class       volScalarField;
    location    "0";
    object      Tr;
}
// * * * * * * * * * * * * * * * * * * * * * * * * * * * * * * * * * * * * //

dimensions      [0 0 0 0 0 0 0];

internalField   uniform 0;

boundaryField
{

    face1
    {
        type            fixedValue;
        value          uniform 0;
    }
    face2
    {
        type            zeroGradient;
    }
    face3
    {
        type            zeroGradient;
    }
    face4
    {
        type            zeroGradient;
    }
    face5
    {
        type            zeroGradient;
    }
    face6
    {
        type            zeroGradient;
    }
    face7
    {
        type            zeroGradient;
    }


}


// *********************************************************************** //
